kpg193_v2_0_2024/network/m/KPG193_ver2_0_2024.m
function mpc = KPG193_ver2_0_2024
% Generated from KPG193_ver1_6 ACOPF hourly result.
% Bus voltage angle Va is in degrees, matching MATPOWER case format.
mpc.version = '2';

%-----  Power Flow Data  -----%%
% system MVA base
mpc.baseMVA = 100;

% bus data
%	bus_i	type	Pd	Qd	Gs	Bs	area	Vm	Va	baseKV	zone	Vmax	Vmin
mpc.bus = [
	1	1	61.4981313461	6.14981313461	0	0	1	0.990606056385	-22.3770333094	154	1	1.1	0.9	;
	2	1	74.3284152889	7.43284152889	0	0	1	0.996302283632	-23.557764206	345	1	1.05	0.95	;
	3	1	340.899001406	34.0899001406	0	0	1	0.996700731877	-23.4154550715	345	1	1.05	0.95	;
	4	1	79.0669739759	7.90669739759	0	0	1	0.997139394016	-23.9245088003	345	1	1.05	0.95	;
	5	1	64.6892032549	8.9283818853	0	0	1	0.985526093719	-21.5085422388	154	1	1.1	0.9	;
	6	1	75.9663407782	7.59663407782	0	0	1	0.997371028373	-25.3598450074	154	1	1.1	0.9	;
	7	1	512.583367127	51.2583367127	0	0	1	0.998913133589	-23.8552766922	345	1	1.05	0.95	;
	8	1	1170.05707759	117.005707759	0	0	1	0.997821344147	-25.2357305079	345	1	1.05	0.95	;
	9	1	296.222505168	29.6222505168	0	0	1	1.00114120073	-24.6356151437	154	1	1.1	0.9	;
	10	2	650.789155431	65.0789155431	0	0	1	0.99868742738	-25.1756344114	154	1	1.1	0.9	;
	11	1	539.036552205	53.9036552205	0	0	1	0.998116922243	-25.4534263768	345	1	1.05	0.95	;
	12	1	295.775822287	29.5775822287	0	0	1	1.00102173956	-24.655080114	154	1	1.1	0.9	;
	13	1	318.79448732	31.879448732	0	0	1	1.0012050989	-24.64027807	154	1	1.1	0.9	;
	14	1	341.883517483	34.1883517483	0	0	1	1.0010398521	-24.6826925578	345	1	1.05	0.95	;
	15	1	101.135809036	10.1135809036	0	0	1	1.00177165135	-24.5652645611	154	1	1.1	0.9	;
	16	1	435.697050256	43.5697050256	0	0	1	1.00205547842	-24.5318152878	345	1	1.05	0.95	;
	17	1	469.815665724	46.9815665724	0	0	1	1.00173387931	-24.6128015561	345	1	1.05	0.95	;
	18	1	490.507052049	49.0507052049	0	0	1	1.00155054771	-24.6456717229	345	1	1.05	0.95	;
	19	2	461.779941315	46.1779941315	0	0	1	1.00108331499	-24.6867398256	345	1	1.05	0.95	;
	20	1	234.494392665	23.8471929336	0	0	1	0.999989961019	-24.5824665092	154	1	1.1	0.9	;
	21	2	719.588582633	71.9813906557	0	0	1	0.999699027642	-25.2173231866	345	1	1.05	0.95	;
	22	1	581.266883776	58.1266883776	0	0	1	1.00176605464	-24.5185074749	345	1	1.05	0.95	;
	23	1	340.152389638	34.0152389638	0	0	1	1.00048177531	-24.7375556771	345	1	1.05	0.95	;
	24	1	556.496173324	55.6496173324	0	0	1	1.00043186758	-25.0286036653	154	1	1.1	0.9	;
	25	1	450.023337919	45.0023337919	0	0	1	0.999901833221	-25.1218774407	154	1	1.1	0.9	;
	26	1	531.157113849	53.1157113849	0	0	1	1.00080925687	-24.9960900108	345	1	1.05	0.95	;
	27	1	27.2739076338	3.02556161273	0	0	1	1.00126449419	-24.9532065333	345	1	1.05	0.95	;
	28	1	120.419363186	12.0419363186	0	0	1	1.00038027576	-19.5599523677	765	1	1.05	0.95	;
	29	1	585.624286681	58.5624358683	0	0	1	1.00069919633	-24.5694762513	345	1	1.05	0.95	;
	30	1	455.019063617	45.5019063617	0	0	1	1.0006467816	-24.5724659298	154	1	1.1	0.9	;
	31	1	370.0614757	37.00614757	0	0	1	0.999714776979	-24.7933061731	154	1	1.1	0.9	;
	32	1	152.577419443	15.2577419443	0	0	1	1.0004299707	-24.7463699809	345	1	1.05	0.95	;
	33	1	439.984557201	43.9984557201	0	0	1	1.00015993019	-24.7626504404	154	1	1.1	0.9	;
	34	2	983.979461381	98.3979501206	0	0	1	1.00115166739	-24.9368877192	345	1	1.05	0.95	;
	35	1	599.448690762	59.9448690762	0	0	1	0.998996893697	-24.5923758726	154	1	1.1	0.9	;
	36	1	691.532551977	69.1532551977	0	0	1	1.00081790741	-24.5366792658	345	1	1.05	0.95	;
	37	1	847.805365388	84.7805365388	0	0	1	1.00124769106	-24.4961251887	345	1	1.05	0.95	;
	38	1	343.370849677	34.3370849677	0	0	1	0.99891205726	-23.2934484474	345	1	1.05	0.95	;
	39	1	662.459043568	66.2459043568	0	0	1	0.992579326867	-25.5424563764	154	1	1.1	0.9	;
	40	2	1004.17508807	100.417508807	0	0	1	1.00420482582	-22.9427715911	345	1	1.05	0.95	;
	41	1	181.442281669	18.1442281669	0	0	1	0.992710347617	-20.1565746208	154	1	1.1	0.9	;
	42	2	1107.34433685	110.734433685	0	0	1	1.00184468949	-21.8639807596	154	1	1.1	0.9	;
	43	1	577.158650869	57.7159029666	0	0	1	0.996179223918	-24.8928537034	154	1	1.1	0.9	;
	44	1	178.069852397	17.8069852397	0	0	1	0.999972700668	-23.6480533527	345	1	1.05	0.95	;
	45	1	326.037131172	32.6037131172	0	0	1	0.999605252013	-22.7351964831	345	1	1.05	0.95	;
	46	1	1025.66617443	102.566617443	0	0	1	0.999473448063	-23.1876841234	345	1	1.05	0.95	;
	47	1	2597.85453207	259.785461243	0	0	1	0.99587293788	-23.5496252692	345	1	1.05	0.95	;
	48	2	181.211923574	18.1211923574	0	0	1	1.00036654594	-22.2786330529	154	1	1.1	0.9	;
	49	1	370.746857227	37.0746857227	0	0	1	0.997941131591	-21.2316205862	154	1	1.1	0.9	;
	50	1	440.877270045	44.0883019967	0	0	1	1.00206333066	-20.5338049567	765	1	1.05	0.95	;
	51	1	1766.28830123	176.628830123	0	0	1	1.0001037347	-21.0174791815	345	1	1.05	0.95	;
	52	1	406.474802008	40.6474802008	0	0	2	0.992892085598	-20.3891488818	154	1	1.1	0.9	;
	53	2	843.596564125	84.3596564125	0	0	2	1.01584618494	-13.2924796381	765	1	1.05	0.95	;
	54	1	362.458533252	36.2458533252	0	0	2	1.00099390369	-19.7519611682	345	1	1.05	0.95	;
	55	1	1055.05371123	105.505371123	0	0	2	1.004733083	-17.0057489212	345	1	1.05	0.95	;
	56	1	146.584468256	14.6584468256	0	0	2	0.995609649074	-20.2979781391	154	1	1.1	0.9	;
	57	1	1661.24208237	166.124242832	0	0	2	1.00343947191	-17.3013034992	345	1	1.05	0.95	;
	58	1	1243.55918404	124.356024162	0	0	2	1.01857406403	-11.1591071104	345	1	1.05	0.95	;
	59	2	112.916009655	11.2919088959	0	0	2	1.02372553176	-9.16099744994	345	1	1.05	0.95	;
	60	1	164.444833027	16.4444833027	0	0	2	1.00801458664	-15.2901577093	345	1	1.05	0.95	;
	61	1	787.270614167	78.727076635	0	0	2	1.00185420628	-19.1389652774	154	1	1.1	0.9	;
	62	1	926.619541213	92.6619541213	0	0	2	1.00377734382	-18.6110552735	765	1	1.05	0.95	;
	63	1	128.294445372	12.8377970589	0	0	2	1.01265414016	-14.1310315617	765	1	1.05	0.95	;
	64	1	467.769648955	46.7769648955	0	0	2	1.00157407906	-16.797489426	345	1	1.05	0.95	;
	65	1	53.8483274928	11.1243233818	0	0	3	0.995416917361	-1.48449611219	154	1	1.1	0.9	;
	66	1	23.7467098967	3.21352190317	0	0	3	0.978667263479	-18.4696739344	154	1	1.1	0.9	;
	67	1	21.5565563076	2.5460659424	0	0	3	0.974884043641	-12.4622812518	154	1	1.1	0.9	;
	68	1	39.6005342874	4.01982157207	0	0	3	1.00698626433	1.3919157328	345	1	1.05	0.95	;
	69	1	41.8281978274	4.18281978274	0	0	3	0.978647151696	-8.25562167357	154	1	1.1	0.9	;
	70	1	230.702374439	23.0702374439	0	0	3	0.976131132297	-19.4152901356	154	1	1.1	0.9	;
	71	2	256.021359775	26.0180134827	0	0	3	1.02194573221	4.89964280277	345	1	1.05	0.95	;
	72	1	90.8367501486	9.08367501486	0	0	3	0.973481929495	-15.5287598673	154	1	1.1	0.9	;
	73	2	283.03524955	29.498969219	0	0	3	1.02156096523	4.55337873804	345	1	1.05	0.95	;
	74	1	79.8997583819	8.3890725441	0	0	3	0.976047600305	-14.3694223303	154	1	1.1	0.9	;
	75	2	174.099352612	17.4099352612	0	0	3	1.02763501711	6.03403342123	345	1	1.05	0.95	;
	76	1	77.2487875115	7.75029219446	0	0	3	1.00164758103	-1.8567451349	154	1	1.1	0.9	;
	77	1	319.616958391	31.9616958391	0	0	3	0.977775608246	-15.5139739343	154	1	1.1	0.9	;
	78	1	71.3617555385	7.73557045874	0	0	3	0.985174195575	-7.78163693739	154	1	1.1	0.9	;
	79	1	133.827984213	14.1006691199	0	0	3	0.99626171765	-5.1587660693	154	1	1.1	0.9	;
	80	1	-5.03759881572	3.74157149956	0	0	3	1.01510388617	-2.81069917738	765	1	1.05	0.95	;
	81	1	204.225100096	20.4226749305	0	0	3	0.991825898946	-8.00310711316	345	1	1.05	0.95	;
	82	2	79.8405892487	8.87990739307	0	0	3	1.03013184197	1.74258686665	765	1	1.05	0.95	;
	83	1	233.520651649	23.3521149945	0	0	3	0.988748883114	-8.51926255422	154	1	1.1	0.9	;
	84	1	322.347754817	34.0638657042	0	0	3	0.987815716654	-18.2617752891	345	1	1.05	0.95	;
	85	1	219.936443241	21.9936443241	0	0	3	1.00269224482	-6.34331364302	154	1	1.1	0.9	;
	86	1	215.37702671	21.5377074026	0	0	3	1.00247681744	-6.99028972361	345	1	1.05	0.95	;
	87	1	11.079868199	4.92720078437	0	0	3	1.00150664629	-8.03125214144	345	1	1.05	0.95	;
	88	1	13.8545169325	1.38545169325	0	0	3	1.00160611525	-8.26436654143	154	1	1.1	0.9	;
	89	1	74.7349561867	7.47351164774	0	0	3	0.991557039906	-10.9761572523	154	1	1.1	0.9	;
	90	1	141.744223562	14.9672656821	0	0	3	1.00082096177	-8.47511496058	154	1	1.1	0.9	;
	91	1	50.1032828314	5.01032828314	0	0	3	0.997337896858	-15.6206896888	154	1	1.1	0.9	;
	92	1	-4.31130519482	2.54288196988	0	0	3	1.00162690722	-8.56335512679	345	1	1.05	0.95	;
	93	1	99.141755227	9.9141755227	0	0	3	0.990623768163	-13.0156805378	154	1	1.1	0.9	;
	94	1	31.6969269276	3.6646927951	0	0	3	1.00056886431	-7.62195284327	154	1	1.1	0.9	;
	95	1	56.3142798703	5.63142798703	0	0	3	0.998814027692	-9.64535162962	345	1	1.05	0.95	;
	96	1	145.694478432	14.5694478432	0	0	4	1.0043791272	-14.9171053798	154	1	1.1	0.9	;
	97	1	45.3336787575	4.53336787575	0	0	4	1.01195508698	-12.3361543214	345	1	1.05	0.95	;
	98	1	229.884350838	23.3722514693	0	0	4	0.999577071169	-16.4546479581	154	1	1.1	0.9	;
	99	1	749.883779921	74.9883779921	0	0	4	0.99309213209	-17.5708556311	154	1	1.1	0.9	;
	100	2	175.733571189	17.5733571189	0	0	4	1.01859572029	-10.2704724423	345	1	1.05	0.95	;
	101	1	274.068874499	27.4068874499	0	0	4	0.993797467033	-17.1123447128	154	1	1.1	0.9	;
	102	1	80.684908619	8.0684908619	0	0	4	1.00277303614	-14.9699658713	345	1	1.05	0.95	;
	103	1	84.584977079	8.4584977079	0	0	4	1.0092274804	-12.5352270986	154	1	1.1	0.9	;
	104	1	178.687979952	17.8687979952	0	0	4	1.00591527251	-13.7761319143	345	1	1.05	0.95	;
	105	1	119.786805153	11.9786805153	0	0	4	1.00019311996	-14.9557703221	154	1	1.1	0.9	;
	106	2	141.764597508	14.176548282	0	0	4	1.00441625292	-10.5112055341	154	1	1.1	0.9	;
	107	1	-10.5784273783	2.69176743749	0	0	4	1.00093711551	-14.0293466385	345	1	1.05	0.95	;
	108	1	733.970411487	73.5804001898	0	0	4	1.00240042049	-11.3818412503	345	1	1.05	0.95	;
	109	1	385.317006736	38.5317006736	0	0	4	1.00270732293	-11.3958249087	345	1	1.05	0.95	;
	110	1	225.491449268	22.5491449268	0	0	4	0.994644381512	-12.471909378	154	1	1.1	0.9	;
	111	1	142.79444733	14.2795143788	0	0	4	1.00262673133	-9.62777592232	345	1	1.05	0.95	;
	112	1	26.3991700766	2.63991700766	0	0	4	0.993821732268	-13.0332838898	154	1	1.1	0.9	;
	113	1	561.151265604	56.1153841899	0	0	4	0.993984277273	-12.0974233543	154	1	1.1	0.9	;
	114	1	61.9975824986	6.20717759585	0	0	4	1.00090999882	-9.59965766654	154	1	1.1	0.9	;
	115	1	27.0670761624	2.70670761624	0	0	4	0.993345283623	-13.2364578557	154	1	1.1	0.9	;
	116	1	38.2097884748	3.82097884748	0	0	4	0.998619363069	-10.2928890911	154	1	1.1	0.9	;
	117	1	214.30715641	23.0716076774	0	0	4	1.00005248738	-9.03070297235	154	1	1.1	0.9	;
	118	1	80.8066448532	8.37920951072	0	0	4	1.00931768378	-4.41826421547	154	1	1.1	0.9	;
	119	1	84.4140619637	8.44140619637	0	0	4	1.00523736833	-8.03469627455	345	1	1.05	0.95	;
	120	1	34.6117671375	3.46117671375	0	0	4	0.999446213053	-9.14829200337	154	1	1.1	0.9	;
	121	1	80.5478190745	8.05478190745	0	0	4	1.00145215686	-6.97911245274	154	1	1.1	0.9	;
	122	1	66.7015764988	6.67015764988	0	0	4	1.00178483174	-8.12362468772	154	1	1.1	0.9	;
	123	1	54.2503904899	5.42503904899	0	0	4	1.00008085576	-8.91813298527	154	1	1.1	0.9	;
	124	2	45.9071062263	10.5428942544	0	0	4	1.01875264146	-1.40646653771	345	1	1.05	0.95	;
	125	1	22.4538905306	2.24538905306	0	0	4	0.999739554871	-9.08243124758	154	1	1.1	0.9	;
	126	1	374.06884602	37.406884602	0	0	4	1.00375120077	-7.26194059613	345	1	1.05	0.95	;
	127	1	294.763867534	29.4764100125	0	0	4	1.00145504647	-8.04727455223	154	1	1.1	0.9	;
	128	1	445.359513223	44.5359513223	0	0	4	0.993178881534	-9.92907100235	154	1	1.1	0.9	;
	129	1	52.7132797646	5.27132797646	0	0	4	0.995234009246	-11.5518755786	154	1	1.1	0.9	;
	130	1	66.6838362777	6.66838362777	0	0	4	1.00224204401	-8.14303179708	345	1	1.05	0.95	;
	131	1	170.888041617	17.0888041617	0	0	4	0.99732154864	-9.63448462693	154	1	1.1	0.9	;
	132	1	86.0411715542	9.17334256529	0	0	4	0.995867981254	-11.3640353981	154	1	1.1	0.9	;
	133	1	266.561516105	27.4563019091	0	0	4	0.99855797645	-8.9184448245	345	1	1.05	0.95	;
	134	1	625.539128035	62.5539128035	0	0	4	0.99913439723	-8.3291259585	345	1	1.05	0.95	;
	135	1	132.668947738	13.2755171563	0	0	4	0.995702989153	-11.4080612576	154	1	1.1	0.9	;
	136	1	137.065399381	15.2662082662	0	0	4	1.00011711269	-9.55853903849	345	1	1.05	0.95	;
	137	2	1816.80933979	181.680933979	0	0	4	0.996041908654	-9.25169515355	345	1	1.05	0.95	;
	138	1	39.2600360424	3.92600360424	0	0	4	0.99754255883	-10.2069039264	154	1	1.1	0.9	;
	139	1	11.8393830131	4.16525828773	0	0	4	0.996027150269	-11.4716802331	154	1	1.1	0.9	;
	140	1	48.1668847414	4.81668847414	0	0	4	0.996796541799	-10.7041483515	154	1	1.1	0.9	;
	141	1	50.0666770766	5.00666770766	0	0	4	0.996887673936	-10.8145133746	154	1	1.1	0.9	;
	142	1	68.0299748467	6.80299748467	0	0	4	0.997459828691	-10.0073090564	154	1	1.1	0.9	;
	143	1	97.8067044854	9.78133568792	0	0	4	0.995103799973	-11.4234208321	154	1	1.1	0.9	;
	144	1	44.8732289368	4.49950920748	0	0	4	0.995209100832	-11.7482750474	154	1	1.1	0.9	;
	145	1	138.461581602	13.9768251659	0	0	4	0.988918200009	-13.1831433097	154	1	1.1	0.9	;
	146	1	39.6409512992	4.08789636083	0	0	5	0.99202967479	-11.570240582	154	1	1.1	0.9	;
	147	1	55.4135002851	5.54135002851	0	0	5	0.999041321222	-14.900464807	154	1	1.1	0.9	;
	148	1	300.01502225	30.0015073184	0	0	5	0.979135500077	-15.5601637441	154	1	1.1	0.9	;
	149	1	1186.89095874	118.689095874	0	0	5	0.984276541151	-14.1364361584	345	1	1.05	0.95	;
	150	1	659.561182825	66.0028037522	0	0	5	0.991927950532	-11.587533103	345	1	1.05	0.95	;
	151	1	557.79941138	55.7827749025	0	0	5	0.991953736982	-11.5575360104	345	1	1.05	0.95	;
	152	1	250.001815355	25.0001815355	0	0	5	0.988691032135	-12.8567094588	345	1	1.05	0.95	;
	153	1	195.903523999	19.5903673031	0	0	5	0.985449755594	-12.9795439592	154	1	1.1	0.9	;
	154	1	134.089659838	13.4089659838	0	0	5	0.984519544954	-14.0142524538	154	1	1.1	0.9	;
	155	1	375.73583105	37.573583105	0	0	5	0.983246693655	-14.0435394009	154	1	1.1	0.9	;
	156	1	404.789944366	40.4789944366	0	0	5	0.985967527836	-12.8013253606	154	1	1.1	0.9	;
	157	1	190.561020099	19.0561020099	0	0	5	0.982990128676	-14.1228852781	154	1	1.1	0.9	;
	158	1	494.847957403	49.8533509178	0	0	5	0.988395156978	-11.9760850156	154	1	1.1	0.9	;
	159	1	346.734342644	34.6734342644	0	0	5	0.989215715512	-11.921218594	345	1	1.05	0.95	;
	160	1	989.569506552	98.9569987676	0	0	5	0.981744432695	-14.3206513798	154	1	1.1	0.9	;
	161	1	163.173825618	16.3173825618	0	0	5	0.995188917118	-11.1177558944	345	1	1.05	0.95	;
	162	1	58.8782051846	5.88782051846	0	0	5	0.994218656363	-11.1265944195	154	1	1.1	0.9	;
	163	1	61.9282655131	6.19282655131	0	0	5	0.99404737218	-10.5328157034	345	1	1.05	0.95	;
	164	1	48.309670895	5.2080854121	0	0	5	0.994336029985	-11.3392385143	154	1	1.1	0.9	;
	165	1	1518.57954185	151.857954185	0	0	5	0.99090434947	-10.6579482524	345	1	1.05	0.95	;
	166	2	487.769563825	48.7769563825	0	0	5	0.998931643611	-8.19774068818	345	1	1.05	0.95	;
	167	1	2026.74224506	202.674248276	0	0	5	0.997769084829	-8.4989255422	345	1	1.05	0.95	;
	168	1	129.06858151	12.906858151	0	0	5	1.00023097951	-9.01427070705	765	1	1.05	0.95	;
	169	1	36.3737417849	3.63737417849	0	0	5	0.995395410726	-10.3091908554	154	1	1.1	0.9	;
	170	1	134.774282753	15.9833169877	0	0	5	0.994277049104	-9.36252510669	154	1	1.1	0.9	;
	171	1	16.0484021698	4.47432206519	0	0	5	0.999359299385	-7.82817359254	345	1	1.05	0.95	;
	172	1	461.907041948	47.1879290325	0	0	5	0.994704948455	-8.5261873395	154	1	1.1	0.9	;
	173	1	45.246542165	4.89665847833	0	0	5	0.998587254597	-7.77707664036	345	1	1.05	0.95	;
	174	1	355.075225333	35.5075225333	0	0	5	0.995499282933	-7.32604924931	345	1	1.05	0.95	;
	175	2	160.847586807	16.0990851694	0	0	5	1.00716695462	-5.42615147297	765	1	1.05	0.95	;
	176	1	466.516873598	46.6517176105	0	0	5	0.993740901125	-6.57456887364	345	1	1.05	0.95	;
	177	1	596.490376502	59.6490376502	0	0	5	0.992535628933	-7.2710629861	345	1	1.05	0.95	;
	178	1	674.247344446	67.42473543	0	0	5	0.987168275711	-9.05156058225	154	1	1.1	0.9	;
	179	1	359.882626669	35.9882626669	0	0	5	1.00226968809	-6.62456429128	345	1	1.05	0.95	;
	180	1	336.596666813	33.6596666813	0	0	5	0.993933265455	-6.61511983569	154	1	1.1	0.9	;
	181	1	305.146564529	30.5146564529	0	0	5	1.00057810022	-6.92100786324	345	1	1.05	0.95	;
	182	1	550.890763071	55.0891123987	0	0	5	0.988381531688	-8.63247076586	345	1	1.05	0.95	;
	183	1	249.206705409	24.9207013732	0	0	5	0.992174357386	-6.69122608811	345	1	1.05	0.95	;
	184	1	492.386913934	49.2387581681	0	0	5	1.00203133772	-6.70726722931	345	1	1.05	0.95	;
	185	1	281.3919451	28.13919451	0	0	5	1.00009520763	-7.13690501235	154	1	1.1	0.9	;
	186	2	421.371414668	42.1372748438	0	0	5	1.00021897938	-6.97386779619	345	1	1.05	0.95	;
	187	1	58.2367770407	5.82367770407	0	0	5	1.00019428781	-6.98184000334	345	1	1.05	0.95	;
	188	1	53.1876982896	5.31876982896	0	0	5	0.999632698277	-7.15358940803	154	1	1.1	0.9	;
	189	1	97.0517321376	9.70889203873	0	0	5	0.998684564312	-0.524567562647	154	1	1.1	0.9	;
	190	3	174.203010478	17.4214597854	0	0	5	1	0	345	1	1.05	0.95	;
	191	1	242.469451427	24.2470098571	0	0	5	0.996473868564	-0.827525819535	154	1	1.1	0.9	;
	192	2	121.115000637	12.1115335891	0	0	5	1.00141574802	0.782102472393	154	1	1.1	0.9	;
	193	2	34.5469623746	3.45469623746	0	0	5	1.00647964706	-4.79531715198	345	1	1.05	0.95	;
];

% generator data
%	bus	Pg	Qg	Qmax	Qmin	Vg	mBase	status	Pmax	Pmin	Pc1	Pc2	Qc1min	Qc1max	Qc2min	Qc2max	ramp_agc	ramp_10	ramp_30	ramp_q	apf
mpc.gen = [
	3	0	0	362.5	-362.5	0.996700731877	100	0	725	377	0	0	0	0	0	0	0	120.8333333	362.5	362.5	0	;
	3	0	0	362.5	-362.5	0.996700731877	100	0	725	377	0	0	0	0	0	0	0	120.8333333	362.5	362.5	0	;
	3	0	0	437.1	-437.1	0.996700731877	100	0	874.2	454.584	0	0	0	0	0	0	0	145.7	437.1	437.1	0	;
	4	0	0	262.15	-262.15	0.997139394016	100	0	524.3	272.636	0	0	0	0	0	0	0	87.38333333	262.15	262.15	0	;
	4	0	0	429.2	-429.2	0.997139394016	100	0	858.4	446.368	0	0	0	0	0	0	0	143.0666667	429.2	429.2	0	;
	4	0	0	429.2	-429.2	0.997139394016	100	0	858.4	446.368	0	0	0	0	0	0	0	143.0666667	429.2	429.2	0	;
	8	0	0	423.8	-423.8	0.997821344147	100	0	847.6	440.752	0	0	0	0	0	0	0	141.2666667	423.8	423.8	0	;
	8	0	0	423.8	-423.8	0.997821344147	100	0	847.6	440.752	0	0	0	0	0	0	0	141.2666667	423.8	423.8	0	;
	8	0	0	257.75	-257.75	0.997821344147	100	0	515.5	268.06	0	0	0	0	0	0	0	85.91666667	257.75	257.75	0	;
	9	0	0	57.705	-57.705	1.00114120073	100	0	115.41	60.0132	0	0	0	0	0	0	0	19.235	57.705	57.705	0	;
	9	0	0	18.5	-18.5	1.00114120073	100	0	37	19.24	0	0	0	0	0	0	0	6.166666667	18.5	18.5	0	;
	10	0	0	300	-300	0.99868742738	100	0	600	312	0	0	0	0	0	0	0	100	300	300	0	;
	10	285.003513501	22.4481966897	150	-150	0.99868742738	100	1	300	156	0	0	0	0	0	0	0	50	150	150	0	;
	19	0	0	184.5865	-184.5865	1.00108331499	100	0	369.173	191.96996	0	0	0	0	0	0	0	61.52883333	184.5865	184.5865	0	;
	19	352.925045387	32.0504804994	184.5865	-184.5865	1.00108331499	100	1	369.173	191.96996	0	0	0	0	0	0	0	61.52883333	184.5865	184.5865	0	;
	20	0	0	181.9055	-181.9055	0.999989961019	100	0	363.811	189.18172	0	0	0	0	0	0	0	60.63516667	181.9055	181.9055	0	;
	21	447.632596309	34.2742731685	225	-225	0.999699027642	100	1	450	234	0	0	0	0	0	0	0	75	225	225	0	;
	21	0	0	225	-225	0.999699027642	100	0	450	234	0	0	0	0	0	0	0	75	225	225	0	;
	21	0	0	225	-225	0.999699027642	100	0	450	234	0	0	0	0	0	0	0	75	225	225	0	;
	21	0	0	225	-225	0.999699027642	100	0	450	234	0	0	0	0	0	0	0	75	225	225	0	;
	24	0	0	10.5	-10.5	1.00043186758	100	0	21	10.92	0	0	0	0	0	0	0	3.5	10.5	10.5	0	;
	26	0	0	225	-225	1.00080925687	100	0	450	234	0	0	0	0	0	0	0	75	225	225	0	;
	27	0	0	63.5	-63.5	1.00126449419	100	0	127	66.04	0	0	0	0	0	0	0	21.16666667	63.5	63.5	0	;
	27	0	0	93.65	-93.65	1.00126449419	100	0	187.3	97.396	0	0	0	0	0	0	0	31.21666667	93.65	93.65	0	;
	34	0	0	112.5	-112.5	1.00115166739	100	0	225	117	0	0	0	0	0	0	0	37.5	112.5	112.5	0	;
	34	0	0	112.5	-112.5	1.00115166739	100	0	225	117	0	0	0	0	0	0	0	37.5	112.5	112.5	0	;
	34	0	0	112.5	-112.5	1.00115166739	100	0	225	117	0	0	0	0	0	0	0	37.5	112.5	112.5	0	;
	34	211.429370328	0.947055584595	112.5	-112.5	1.00115166739	100	1	225	117	0	0	0	0	0	0	0	37.5	112.5	112.5	0	;
	34	0	0	112.5	-112.5	1.00115166739	100	0	225	117	0	0	0	0	0	0	0	37.5	112.5	112.5	0	;
	34	211.429370328	0.947055584595	112.5	-112.5	1.00115166739	100	1	225	117	0	0	0	0	0	0	0	37.5	112.5	112.5	0	;
	34	0	0	112.5	-112.5	1.00115166739	100	0	225	117	0	0	0	0	0	0	0	37.5	112.5	112.5	0	;
	34	0	0	112.5	-112.5	1.00115166739	100	0	225	117	0	0	0	0	0	0	0	37.5	112.5	112.5	0	;
	34	0	0	251.7695	-251.7695	1.00115166739	100	0	503.539	261.84028	0	0	0	0	0	0	0	83.92316667	251.7695	251.7695	0	;
	34	0	0	254.454	-254.454	1.00115166739	100	0	508.908	264.63216	0	0	0	0	0	0	0	84.818	254.454	254.454	0	;
	34	0	0	225	-225	1.00115166739	100	0	450	234	0	0	0	0	0	0	0	75	225	225	0	;
	34	437.762273227	22.8774343662	225	-225	1.00115166739	100	1	450	234	0	0	0	0	0	0	0	75	225	225	0	;
	34	0	0	225	-225	1.00115166739	100	0	450	234	0	0	0	0	0	0	0	75	225	225	0	;
	34	0	0	287.3	-287.3	1.00115166739	100	0	574.6	298.792	0	0	0	0	0	0	0	95.76666667	287.3	287.3	0	;
	34	558.48269506	43.4321417711	287.3	-287.3	1.00115166739	100	1	574.6	298.792	0	0	0	0	0	0	0	95.76666667	287.3	287.3	0	;
	34	0	0	187.8	-187.8	1.00115166739	100	0	375.6	195.312	0	0	0	0	0	0	0	62.6	187.8	187.8	0	;
	34	0	0	187.8	-187.8	1.00115166739	100	0	375.6	195.312	0	0	0	0	0	0	0	62.6	187.8	187.8	0	;
	34	0	0	187.8	-187.8	1.00115166739	100	0	375.6	195.312	0	0	0	0	0	0	0	62.6	187.8	187.8	0	;
	36	0	0	286.895	-286.895	1.00081790741	100	0	573.79	298.3708	0	0	0	0	0	0	0	95.63166667	286.895	286.895	0	;
	36	0	0	174.137	-174.137	1.00081790741	100	0	348.274	181.10248	0	0	0	0	0	0	0	58.04566667	174.137	174.137	0	;
	36	0	0	206.3	-206.3	1.00081790741	100	0	412.6	214.552	0	0	0	0	0	0	0	68.76666667	206.3	206.3	0	;
	36	0	0	73.157	-73.157	1.00081790741	100	0	146.314	76.08328	0	0	0	0	0	0	0	24.38566667	73.157	73.157	0	;
	37	0	0	12	-12	1.00124769106	100	0	24	12.48	0	0	0	0	0	0	0	4	12	12	0	;
	39	0	0	240.845	-240.845	0.992579326867	100	0	481.69	250.4788	0	0	0	0	0	0	0	80.28166667	240.845	240.845	0	;
	39	0	0	240.845	-240.845	0.992579326867	100	0	481.69	250.4788	0	0	0	0	0	0	0	80.28166667	240.845	240.845	0	;
	40	0	0	30	-30	1.00420482582	100	0	60	31.2	0	0	0	0	0	0	0	10	30	30	0	;
	40	0	0	375.6	-375.6	1.00420482582	100	0	751.2	390.624	0	0	0	0	0	0	0	125.2	375.6	375.6	0	;
	40	780.209656569	107.408900633	400	-400	1.00420482582	100	1	800	320	0	0	0	0	0	0	0	88	264	400	0	;
	40	780.209656569	107.408900633	400	-400	1.00420482582	100	1	800	320	0	0	0	0	0	0	0	88	264	400	0	;
	40	850.115648717	124.746283286	435	-435	1.00420482582	100	1	870	348	0	0	0	0	0	0	0	95.7	287.1	435	0	;
	40	850.115648717	124.746283286	435	-435	1.00420482582	100	1	870	348	0	0	0	0	0	0	0	95.7	287.1	435	0	;
	40	850.627798146	124.746283286	435	-435	1.00420482582	100	1	870	348	0	0	0	0	0	0	0	95.7	287.1	435	0	;
	40	850.115648717	124.746283286	435	-435	1.00420482582	100	1	870	348	0	0	0	0	0	0	0	95.7	287.1	435	0	;
	43	0	0	72.394	-72.394	0.996179223918	100	0	144.788	75.28976	0	0	0	0	0	0	0	24.13133333	72.394	72.394	0	;
	43	0	0	19.45	-19.45	0.996179223918	100	0	38.9	20.228	0	0	0	0	0	0	0	6.483333333	19.45	19.45	0	;
	45	0	0	255.9	-255.9	0.999605252013	100	0	511.8	266.136	0	0	0	0	0	0	0	85.3	255.9	255.9	0	;
	47	0	0	175	-175	0.99587293788	100	0	350	182	0	0	0	0	0	0	0	58.33333333	175	175	0	;
	47	0	0	175	-175	0.99587293788	100	0	350	182	0	0	0	0	0	0	0	58.33333333	175	175	0	;
	47	0	0	175	-175	0.99587293788	100	0	350	182	0	0	0	0	0	0	0	58.33333333	175	175	0	;
	47	0	0	175	-175	0.99587293788	100	0	350	182	0	0	0	0	0	0	0	58.33333333	175	175	0	;
	47	0	0	434.25	-434.25	0.99587293788	100	0	868.5	451.62	0	0	0	0	0	0	0	144.75	434.25	434.25	0	;
	47	0	0	431.65	-431.65	0.99587293788	100	0	863.3	448.916	0	0	0	0	0	0	0	143.8833333	431.65	431.65	0	;
	48	0	0	218.05	-218.05	1.00036654594	100	0	436.1	226.772	0	0	0	0	0	0	0	72.68333333	218.05	218.05	0	;
	48	0	0	189.19	-189.19	1.00036654594	100	0	378.38	196.7576	0	0	0	0	0	0	0	63.06333333	189.19	189.19	0	;
	48	361.485631307	41.3618087977	189.19	-189.19	1.00036654594	100	1	378.38	196.7576	0	0	0	0	0	0	0	63.06333333	189.19	189.19	0	;
	49	0	0	384.915	-384.915	0.997941131591	100	0	769.83	400.3116	0	0	0	0	0	0	0	128.305	384.915	384.915	0	;
	53	0	0	250.375	-250.375	1.01584618494	100	0	500.75	260.39	0	0	0	0	0	0	0	83.45833333	250.375	250.375	0	;
	53	0	0	266.5	-266.5	1.01584618494	100	0	533	277.16	0	0	0	0	0	0	0	88.83333333	266.5	266.5	0	;
	53	0	0	191	-191	1.01584618494	100	0	382	198.64	0	0	0	0	0	0	0	63.66666667	191	191	0	;
	53	0	0	423	-423	1.01584618494	100	0	846	439.92	0	0	0	0	0	0	0	141	423	423	0	;
	53	465.20320162	38.7766361006	250	-250	1.01584618494	100	1	500	200	0	0	0	0	0	0	0	55	165	250	0	;
	53	476.185726275	38.7766361006	250	-250	1.01584618494	100	1	500	200	0	0	0	0	0	0	0	55	165	250	0	;
	53	476.185726275	38.7766361006	250	-250	1.01584618494	100	1	500	200	0	0	0	0	0	0	0	55	165	250	0	;
	53	476.185726275	38.7766361006	250	-250	1.01584618494	100	1	500	200	0	0	0	0	0	0	0	55	165	250	0	;
	53	476.79898458	38.7766361006	250	-250	1.01584618494	100	1	500	200	0	0	0	0	0	0	0	55	165	250	0	;
	53	476.185726275	38.7766361006	250	-250	1.01584618494	100	1	500	200	0	0	0	0	0	0	0	55	165	250	0	;
	53	476.185726275	38.7766361006	250	-250	1.01584618494	100	1	500	200	0	0	0	0	0	0	0	55	165	250	0	;
	53	476.185726275	38.7766361006	250	-250	1.01584618494	100	1	500	200	0	0	0	0	0	0	0	55	165	250	0	;
	53	993.869414871	159.509626894	510	-510	1.01584618494	100	1	1020	408	0	0	0	0	0	0	0	112.2	336.6	510	0	;
	53	988.013232992	159.509626894	510	-510	1.01584618494	100	1	1020	408	0	0	0	0	0	0	0	112.2	336.6	510	0	;
	57	0	0	50.85	-50.85	1.00343947191	100	0	101.7	52.884	0	0	0	0	0	0	0	16.95	50.85	50.85	0	;
	58	0	0	232.9	-232.9	1.01857406403	100	0	465.8	242.216	0	0	0	0	0	0	0	77.63333333	232.9	232.9	0	;
	59	0	0	173.165	-173.165	1.02372553176	100	0	346.33	180.0916	0	0	0	0	0	0	0	57.72166667	173.165	173.165	0	;
	59	455.849587963	20.6040016334	250	-250	1.02372553176	100	1	500	200	0	0	0	0	0	0	0	55	165	250	0	;
	59	455.849587963	20.6040016334	250	-250	1.02372553176	100	1	500	200	0	0	0	0	0	0	0	55	165	250	0	;
	59	455.849587963	20.6040016334	250	-250	1.02372553176	100	1	500	200	0	0	0	0	0	0	0	55	165	250	0	;
	59	462.241888906	20.6040016334	250	-250	1.02372553176	100	1	500	200	0	0	0	0	0	0	0	55	165	250	0	;
	59	455.849587963	20.6040016334	250	-250	1.02372553176	100	1	500	200	0	0	0	0	0	0	0	55	165	250	0	;
	59	455.849587963	20.6040016334	250	-250	1.02372553176	100	1	500	200	0	0	0	0	0	0	0	55	165	250	0	;
	59	455.849587963	20.6040016334	250	-250	1.02372553176	100	1	500	200	0	0	0	0	0	0	0	55	165	250	0	;
	59	445.68729772	20.6040016334	250	-250	1.02372553176	100	1	500	200	0	0	0	0	0	0	0	55	165	250	0	;
	59	1006.85692985	98.5242883958	525	-525	1.02372553176	100	1	1050	420	0	0	0	0	0	0	0	115.5	346.5	525	0	;
	59	1006.85692985	98.5242883958	525	-525	1.02372553176	100	1	1050	420	0	0	0	0	0	0	0	115.5	346.5	525	0	;
	62	0	0	29.15	-29.15	1.00377734382	100	0	58.3	30.316	0	0	0	0	0	0	0	9.716666667	29.15	29.15	0	;
	64	0	0	265.2205	-265.2205	1.00157407906	100	0	530.441	275.82932	0	0	0	0	0	0	0	88.40683333	265.2205	265.2205	0	;
	70	0	0	215.6	-215.6	0.976131132297	100	0	431.2	224.224	0	0	0	0	0	0	0	71.86666667	215.6	215.6	0	;
	71	992.667554735	121.823659672	520	-520	1.02194573221	100	1	1040	416	0	0	0	0	0	0	0	114.4	343.2	520	0	;
	73	177.761600585	5.04355820356	100	-100	1.02156096523	100	1	200	80	0	0	0	0	0	0	0	22	66	100	0	;
	73	169.660594942	5.04355820356	100	-100	1.02156096523	100	1	200	80	0	0	0	0	0	0	0	22	66	100	0	;
	73	531.320884524	40.8766412228	297.5	-297.5	1.02156096523	100	1	595	238	0	0	0	0	0	0	0	65.45	196.35	297.5	0	;
	73	556.107593365	40.8766412228	297.5	-297.5	1.02156096523	100	1	595	238	0	0	0	0	0	0	0	65.45	196.35	297.5	0	;
	79	0	0	424	-424	0.99626171765	100	0	848	440.96	0	0	0	0	0	0	0	141.3333333	424	424	0	;
	75	957.625605891	41.1862868242	511	-511	1.02763501711	100	1	1022	408.8	0	0	0	0	0	0	0	112.42	337.26	511	0	;
	75	957.625605891	41.1862868242	511	-511	1.02763501711	100	1	1022	408.8	0	0	0	0	0	0	0	112.42	337.26	511	0	;
	82	933.699092244	164.910275063	475	-475	1.03013184197	100	1	950	902.5	0	0	0	0	0	0	0	28.5	85.5	475	0	;
	82	933.699092244	164.910275063	475	-475	1.03013184197	100	1	950	902.5	0	0	0	0	0	0	0	28.5	85.5	475	0	;
	82	983.074398927	181.577332709	500	-500	1.03013184197	100	1	1000	950	0	0	0	0	0	0	0	30	90	500	0	;
	82	983.074398927	181.577332709	500	-500	1.03013184197	100	1	1000	950	0	0	0	0	0	0	0	30	90	500	0	;
	82	983.074398927	181.577332709	500	-500	1.03013184197	100	1	1000	950	0	0	0	0	0	0	0	30	90	500	0	;
	82	983.074398927	181.577332709	500	-500	1.03013184197	100	1	1000	950	0	0	0	0	0	0	0	30	90	500	0	;
	82	1378.69963326	335.288635607	700	-700	1.03013184197	100	1	1400	1330	0	0	0	0	0	0	0	42	126	700	0	;
	87	0	0	180.8	-180.8	1.00150664629	100	0	361.6	188.032	0	0	0	0	0	0	0	60.26666667	180.8	180.8	0	;
	98	0	0	44	-44	0.999577071169	100	0	88	45.76	0	0	0	0	0	0	0	14.66666667	44	44	0	;
	99	0	0	24.15	-24.15	0.99309213209	100	0	48.3	25.116	0	0	0	0	0	0	0	8.05	24.15	24.15	0	;
	100	0	0	225	-225	1.01859572029	100	0	450	234	0	0	0	0	0	0	0	75	225	225	0	;
	100	0	0	225	-225	1.01859572029	100	0	450	234	0	0	0	0	0	0	0	75	225	225	0	;
	100	0	0	225	-225	1.01859572029	100	0	450	234	0	0	0	0	0	0	0	75	225	225	0	;
	100	512.641672096	33.7883980644	275	-275	1.01859572029	100	1	550	220	0	0	0	0	0	0	0	60.5	181.5	275	0	;
	100	462.545217703	27.3758561827	250	-250	1.01859572029	100	1	500	200	0	0	0	0	0	0	0	55	165	250	0	;
	100	462.545217703	27.3758561827	250	-250	1.01859572029	100	1	500	200	0	0	0	0	0	0	0	55	165	250	0	;
	100	462.545217703	27.3758561827	250	-250	1.01859572029	100	1	500	200	0	0	0	0	0	0	0	55	165	250	0	;
	100	472.269794601	27.3758561827	250	-250	1.01859572029	100	1	500	200	0	0	0	0	0	0	0	55	165	250	0	;
	100	462.545217703	27.3758561827	250	-250	1.01859572029	100	1	500	200	0	0	0	0	0	0	0	55	165	250	0	;
	100	981.614264679	118.021483319	509.515	-509.515	1.01859572029	100	1	1019.03	407.612	0	0	0	0	0	0	0	112.0933	336.2799	509.515	0	;
	100	981.614264679	118.021483319	509.515	-509.515	1.01859572029	100	1	1019.03	407.612	0	0	0	0	0	0	0	112.0933	336.2799	509.515	0	;
	106	954.809776735	38.0122918546	509	-509	1.00441625292	100	1	1018	407.2	0	0	0	0	0	0	0	111.98	335.94	509	0	;
	108	0	0	359.2	-359.2	1.00240042049	100	0	718.4	373.568	0	0	0	0	0	0	0	119.7333333	359.2	359.2	0	;
	124	930.026851191	66.706127964	475	-475	1.01875264146	100	1	950	902.5	0	0	0	0	0	0	0	28.5	85.5	475	0	;
	124	930.026851191	66.706127964	475	-475	1.01875264146	100	1	950	902.5	0	0	0	0	0	0	0	28.5	85.5	475	0	;
	124	979.075274635	74.0088304339	500	-500	1.01875264146	100	1	1000	950	0	0	0	0	0	0	0	30	90	500	0	;
	124	979.075274635	74.0088304339	500	-500	1.01875264146	100	1	1000	950	0	0	0	0	0	0	0	30	90	500	0	;
	124	979.075274635	74.0088304339	500	-500	1.01875264146	100	1	1000	950	0	0	0	0	0	0	0	30	90	500	0	;
	124	979.075274635	74.0088304339	500	-500	1.01875264146	100	1	1000	950	0	0	0	0	0	0	0	30	90	500	0	;
	128	0	0	57.623	-57.623	0.993178881534	100	0	115.246	59.92792	0	0	0	0	0	0	0	19.20766667	57.623	57.623	0	;
	134	0	0	262.75	-262.75	0.99913439723	100	0	525.5	273.26	0	0	0	0	0	0	0	87.58333333	262.75	262.75	0	;
	134	0	0	432.1	-432.1	0.99913439723	100	0	864.2	449.384	0	0	0	0	0	0	0	144.0333333	432.1	432.1	0	;
	134	0	0	247.3	-247.3	0.99913439723	100	0	494.6	257.192	0	0	0	0	0	0	0	82.43333333	247.3	247.3	0	;
	134	0	0	247.3	-247.3	0.99913439723	100	0	494.6	257.192	0	0	0	0	0	0	0	82.43333333	247.3	247.3	0	;
	137	320.963234318	22.0443077673	170	-170	0.996041908654	100	1	340	136	0	0	0	0	0	0	0	37.4	112.2	170	0	;
	137	311.022744698	20.777677852	164.3	-164.3	0.996041908654	100	1	328.6	131.44	0	0	0	0	0	0	0	36.146	108.438	164.3	0	;
	156	0	0	185.35	-185.35	0.985967527836	100	0	370.7	192.764	0	0	0	0	0	0	0	61.78333333	185.35	185.35	0	;
	160	0	0	0	0	0.981744432695	100	0	0	0	0	0	0	0	0	0	0	0	0	0	0	;
	166	685.564497874	53.2018391889	350	-350	0.998931643611	100	1	700	665	0	0	0	0	0	0	0	21	63	350	0	;
	166	685.564497874	53.2018391889	350	-350	0.998931643611	100	1	700	665	0	0	0	0	0	0	0	21	63	350	0	;
	166	685.564497874	53.2018391889	350	-350	0.998931643611	100	1	700	665	0	0	0	0	0	0	0	21	63	350	0	;
	166	980.219744742	100.793831386	500	-500	0.998931643611	100	1	1000	950	0	0	0	0	0	0	0	30	90	500	0	;
	166	980.219744742	100.793831386	500	-500	0.998931643611	100	1	1000	950	0	0	0	0	0	0	0	30	90	500	0	;
	167	0	0	150	-150	0.997769084829	100	0	300	156	0	0	0	0	0	0	0	50	150	150	0	;
	167	0	0	225	-225	0.997769084829	100	0	450	234	0	0	0	0	0	0	0	75	225	225	0	;
	167	0	0	225	-225	0.997769084829	100	0	450	234	0	0	0	0	0	0	0	75	225	225	0	;
	167	0	0	435.95	-435.95	0.997769084829	100	0	871.9	453.388	0	0	0	0	0	0	0	145.3166667	435.95	435.95	0	;
	167	0	0	221.4	-221.4	0.997769084829	100	0	442.8	230.256	0	0	0	0	0	0	0	73.8	221.4	221.4	0	;
	172	0	0	22.918	-22.918	0.994704948455	100	0	45.836	23.83472	0	0	0	0	0	0	0	7.639333333	22.918	22.918	0	;
	175	636.633717366	36.8013571208	325	-325	1.00716695462	100	1	650	617.5	0	0	0	0	0	0	0	19.5	58.5	325	0	;
	175	931.249245372	75.6239888204	475	-475	1.00716695462	100	1	950	902.5	0	0	0	0	0	0	0	28.5	85.5	475	0	;
	175	931.249245372	75.6239888204	475	-475	1.00716695462	100	1	950	902.5	0	0	0	0	0	0	0	28.5	85.5	475	0	;
	175	980.401310678	82.7531547073	500	-500	1.00716695462	100	1	1000	950	0	0	0	0	0	0	0	30	90	500	0	;
	175	980.401310678	82.7531547073	500	-500	1.00716695462	100	1	1000	950	0	0	0	0	0	0	0	30	90	500	0	;
	175	1374.02478632	147.890858597	700	-700	1.00716695462	100	1	1400	1330	0	0	0	0	0	0	0	42	126	700	0	;
	175	1374.02478632	147.890858597	700	-700	1.00716695462	100	1	1400	1330	0	0	0	0	0	0	0	42	126	700	0	;
	180	0	0	13.15	-13.15	0.993933265455	100	0	26.3	13.676	0	0	0	0	0	0	0	4.383333333	13.15	13.15	0	;
	186	0	0	225	-225	1.00021897938	100	0	450	234	0	0	0	0	0	0	0	75	225	225	0	;
	186	397.48526164	17.6787493903	225	-225	1.00021897938	100	1	450	234	0	0	0	0	0	0	0	75	225	225	0	;
	186	0	0	225	-225	1.00021897938	100	0	450	234	0	0	0	0	0	0	0	75	225	225	0	;
	186	0	0	225	-225	1.00021897938	100	0	450	234	0	0	0	0	0	0	0	75	225	225	0	;
	190	492.559584011	0.338115049513	280	-280	1	100	1	560	224	0	0	0	0	0	0	0	61.6	184.8	280	0	;
	190	492.559584011	0.338115049513	280	-280	1	100	1	560	224	0	0	0	0	0	0	0	61.6	184.8	280	0	;
	190	437.193167082	1.24729399599	250	-250	1	100	1	500	200	0	0	0	0	0	0	0	55	165	250	0	;
	190	437.193167082	1.24729399599	250	-250	1	100	1	500	200	0	0	0	0	0	0	0	55	165	250	0	;
	190	900.404780346	8.60470575995	520	-520	1	100	1	1040	416	0	0	0	0	0	0	0	114.4	343.2	520	0	;
	190	934.206508709	8.60470575995	520	-520	1	100	1	1040	416	0	0	0	0	0	0	0	114.4	343.2	520	0	;
	193	383.861671601	17.2115568994	250	-250	1.00647964706	100	1	500	200	0	0	0	0	0	0	0	55	165	250	0	;
	193	377.902651623	17.2115568994	250	-250	1.00647964706	100	1	500	200	0	0	0	0	0	0	0	55	165	250	0	;
	193	377.902651623	17.2115568994	250	-250	1.00647964706	100	1	500	200	0	0	0	0	0	0	0	55	165	250	0	;
	193	377.902651623	17.2115568994	250	-250	1.00647964706	100	1	500	200	0	0	0	0	0	0	0	55	165	250	0	;
	193	377.902651623	17.2115568994	250	-250	1.00647964706	100	1	500	200	0	0	0	0	0	0	0	55	165	250	0	;
	193	377.902651623	17.2115568994	250	-250	1.00647964706	100	1	500	200	0	0	0	0	0	0	0	55	165	250	0	;
	193	377.902651623	17.2115568994	250	-250	1.00647964706	100	1	500	200	0	0	0	0	0	0	0	55	165	250	0	;
	193	341.267838804	17.2115568994	250	-250	1.00647964706	100	1	500	200	0	0	0	0	0	0	0	55	165	250	0	;
	71	992.667554735	121.823659672	520	-520	1.02194573221	100	1	1040	416	0	0	0	0	0	0	0	114.4	343.2	520	0	;
	60	0	0	247.5	-247.5	1.00801458664	100	0	495	257.4	0	0	0	0	0	0	0	82.5	247.5	247.5	0	;
	42	1023.26418875	268.027542275	512.7	-512.7	1.00184468949	100	1	1025.4	533.208	0	0	0	0	0	0	0	170.9	512.7	512.7	0	;
	11	0	0	175.23	-175.23	0.998116922243	100	0	350.46	182.2392	0	0	0	0	0	0	0	58.41	175.23	175.23	0	;
	172	0	0	59.486	-59.486	0.994704948455	100	0	118.972	61.86544	0	0	0	0	0	0	0	19.8286666667	59.486	59.486	0	;
	82	1378.69963326	335.288635607	700	-700	1.03013184197	100	1	1400	1330	0	0	0	0	0	0	0	42	126	700	0	;
	75	980.369031634	43.8919529825	525	-525	1.02763501711	100	1	1050	420	0	0	0	0	0	0	0	115.5	346.5	525	0	;
	64	0	0	298.5855	-298.5855	1.00157407906	100	0	597.171	310.52892	0	0	0	0	0	0	0	99.5285	298.5855	298.5855	0	;
	160	0	0	135	-135	0.981744432695	100	0	270	140.4	0	0	0	0	0	0	0	45	135	135	0	;
	192	892.604000709	30.9949843203	506	-506	1.00141574802	100	1	1012	526.24	0	0	0	0	0	0	0	168.666666667	506	506	0	;
	167	0	0	552.3	-552.3	0.997769084829	100	0	1104.6	574.392	0	0	0	0	0	0	0	184.1	552.3	552.3	0	;
];

% branch data
%	fbus	tbus	r	x	b	rateA	rateB	rateC	ratio	angle	status	angmin	angmax	Pf	Qf	Pt	Qt
mpc.branch = [
	1	2	0.001953667	0.017794207	0.057753945	904	904	904	0	0	1	-30	30	109.617049729	-45.4021127621	-109.341749271	42.2094993232	;
	1	3	0.002346024	0.021367842	0.069352749	904	904	904	0	0	1	-30	30	79.7596237103	-39.6556308584	-79.5761145009	34.4794649769	;
	1	66	0.002789894	0.025410654	0.082474341	904	904	904	0	0	1	-30	30	-250.874804696	78.9079306247	252.859817179	-68.8244822482	;
	2	3	0.000230027	0.002463512	0.207508013	2172	2172	2172	0	0	1	-30	30	-100.73249344	-16.8829069641	100.756108399	-3.47004782424	;
	2	4	0.001097043	0.009991982	0.032430577	904	904	904	0	0	1	-30	30	61.999069172	-16.5597449291	-61.9541162945	13.7473563007	;
	2	6	0.004587512	0.041783555	0.135615211	904	904	904	0	0	1	-30	30	73.7467581498	-16.1996889015	-73.4912632005	5.05090334034	;
	3	4	0.000157872	0.001690763	0.142417379	2172	2172	2172	0	0	1	-30	30	515.550903157	-78.7516442947	-515.120343501	69.2086660612	;
	3	7	0.001539844	0.014025061	0.04552058	904	904	904	0	0	1	-30	30	52.1605681345	-23.5012993597	-52.1114023408	19.4169870517	;
	3	28	0.000668777	0.007162388	0.603306441	2172	2172	2172	0	0	1	-30	30	-929.790469049	37.1536270488	935.640784284	-34.6534921394	;
	4	7	0.001330617	0.012119404	0.039335464	904	904	904	0	0	1	-30	30	-11.3951193723	-15.292109118	11.3992373788	11.411579116	;
	4	8	0.000413018	0.004423289	0.372585094	2172	2172	2172	0	0	1	-30	30	509.402603724	-75.5706103682	-508.311182348	50.1883849007	;
	5	16	0.00309813	0.028218105	0.091586372	904	904	904	0	0	1	-30	30	176.647432976	-76.7007133282	-175.485554543	78.2373484505	;
	5	20	0.003233724	0.029453105	0.095594761	904	904	904	0	0	1	-30	30	172.564686901	-67.1716157537	-171.443060892	67.9654872421	;
	5	66	0.002753227	0.025076687	0.081390398	904	904	904	0	0	1	-30	30	-197.961047424	50.1461038739	199.154884528	-47.1228200384	;
	5	70	0.001710666	0.015580931	0.050570403	904	904	904	0	0	1	-30	30	-215.940275441	84.7978434721	216.895655023	-80.9612524926	;
	6	8	0.001796592	0.016363559	0.053110546	904	904	904	0	0	1	-30	30	-13.313707469	-3.91027980848	13.3169378955	-1.34584909486	;
	6	11	0.001545809	0.014079394	0.045696926	904	904	904	0	0	1	-30	30	10.8386299585	-8.73725758762	-10.8361550379	4.21070161474	;
	7	9	0.000740338	0.006743076	0.021885732	904	904	904	0	0	1	-30	30	196.144439925	-54.2579836784	-195.838020002	54.8601935819	;
	7	14	0.000255269	0.002733843	0.230278712	2172	2172	2172	0	0	1	-30	30	516.78636409	-133.636979031	-516.064968121	118.336066582	;
	7	28	0.000583767	0.00625196	0.526618746	2172	2172	2172	0	0	1	-30	30	-1184.80200948	105.808060741	1193.11657809	-69.3863588193	;
	8	10	0.000160584	0.000184873	0.901984702	1416	1416	1416	0	0	1	-30	30	-553.521010093	-31.2622261364	554.015467152	-58.0523866087	;
	8	11	0.000158062	0.001692798	0.142588761	2172	2172	2172	0	0	1	-30	30	220.034610573	-44.641952925	-219.9555123	31.2880529358	;
	8	14	0.000269282	0.002883925	0.242920462	2172	2172	2172	0	0	1	-30	30	-341.576425038	-89.9440666434	341.908373717	69.2346788299	;
	9	12	0.000119405	0.000137466	0.167672111	708	708	708	0	0	1	-30	30	184.25739122	-81.4078649495	-184.210595168	64.6582420469	;
	9	13	0.000176983	0.000203752	0.248523638	708	708	708	0	0	1	-30	30	7.2760979117	-50.1696417564	-7.27349270883	25.2619318796	;
	9	15	0.000297907	0.000342968	0.41832935	708	708	708	0	0	1	-30	30	-295.647879178	52.0284763968	295.923515563	-93.6660286778	;
	10	14	0.00105221	0.00958364	0.031105236	904	904	904	0	0	1	-30	30	-91.2951936036	-15.6556394941	91.385222739	13.3659547264	;
	10	24	0.000243464	0.000280289	1.367512381	1416	1416	1416	0	0	1	-30	30	-828.505915522	31.0773140349	830.205558948	-165.751523221	;
	11	21	0.00015784	0.00169041	0.142387631	2172	2172	2172	0	0	1	-30	30	-249.739401665	-76.6890615402	249.845892036	63.6218445407	;
	11	25	0.00110679	0.010080759	0.032718716	904	904	904	0	0	1	-30	30	-58.5054807623	-12.7133482979	58.5448728391	9.80674041198	;
	12	14	0.000665432	0.00606083	0.019671394	904	904	904	0	0	1	-30	30	7.84077114205	-2.14366754392	-7.84035397817	0.17627019125	;
	12	18	0.000258897	0.000298056	0.363549377	708	708	708	0	0	1	-30	30	-119.40599823	-92.0921565443	119.45693739	55.7022846932	;
	13	16	0.000661549	0.006025463	0.019556605	904	904	904	0	0	1	-30	30	-32.6739498502	-11.4931146941	32.6817248653	9.60188777653	;
	13	17	0.000189196	0.000217813	0.265674267	708	708	708	0	0	1	-30	30	-246.165748427	-42.4997588219	246.281728308	15.9877143221	;
	13	22	0.000821755	0.00748463	0.024292563	904	904	904	0	0	1	-30	30	-28.9514484163	-5.51244712358	28.9584709005	3.13992909383	;
	14	18	9.94e-05	0.000114489	0.558582953	1416	1416	1416	0	0	1	-30	30	-543.595677162	-2.38067108176	543.889440948	-53.2840595169	;
	14	19	2.7e-05	6.2e-05	1.344867636	1906	1906	1906	0	0	1	-30	30	70.286855439	-168.162394816	-70.2827878028	33.3992822187	;
	14	23	0.000322118	0.000370841	0.45232683	708	708	708	0	0	1	-30	30	222.03702573	-64.7582540191	-221.872853886	19.645718211	;
	15	16	0.000110729	0.000127478	0.155489196	708	708	708	0	0	1	-30	30	-372.380162117	92.7439317871	372.544318649	-108.163429325	;
	16	17	1.61e-05	3.7e-05	7.216516162	5718	5718	5718	0	0	1	-30	30	3543.8628847	-1030.68644043	-3541.77755009	311.090002731	;
	16	20	0.000640865	0.005837068	0.018945138	904	904	904	0	0	1	-30	30	18.8428075489	32.4457082448	-18.8334228776	-34.2586245548	;
	16	22	3.29e-05	7.57e-05	1.640782241	1906	1906	1906	0	0	1	-30	30	-118.998108278	352.492686042	119.064710668	-517.045296761	;
	16	28	0.000193401	0.002071259	0.697869898	4344	4344	4344	0	0	1	-30	30	-4133.82614562	614.099308965	4167.55167418	-322.867482856	;
	17	18	8.5e-06	1.95e-05	1.693948976	3812	3812	3812	0	0	1	-30	30	2825.6801555	-374.059283065	-2824.99674503	205.67538605	;
	18	19	3.3e-05	3.8e-05	0.742	2832	2832	2832	0	0	1	-30	30	1688.12738843	-271.076437657	-1687.17188034	197.781154355	;
	18	30	0.000754369	0.006870878	0.022300533	904	904	904	0	0	1	-30	30	-16.984052586	13.9321061464	16.9879254041	-16.1317886905	;
	19	23	4.24e-05	4.88e-05	0.952412124	2832	2832	2832	0	0	1	-30	30	1648.59977293	-245.307945235	-1647.43336709	151.26007189	;
	20	22	0.000644357	0.005868869	0.019048354	904	904	904	0	0	1	-30	30	-22.1089559542	-28.7770276443	22.1170944491	26.9429705907	;
	21	25	0.000588113	0.0053566	0.017385701	904	904	904	0	0	1	-30	30	-31.1239884386	-1.21064582332	31.1296896235	-0.475303392398	;
	21	34	9.49e-05	0.001016882	0.085654572	2172	2172	2172	0	0	1	-30	30	-490.677889982	-100.118300762	490.915235135	94.0887754938	;
	22	29	0.000157753	0.000181614	0.886083495	1416	1416	1416	0	0	1	-30	30	571.313702193	47.9740197669	-570.787180083	-136.194809482	;
	22	36	0.000114952	0.001231098	0.103698609	2172	2172	2172	0	0	1	-30	30	32.7476397518	68.8954762126	-32.7401219938	-79.2116393712	;
	22	38	0.000222736	0.002385427	0.200930653	2172	2172	2172	0	0	1	-30	30	-877.134447653	201.261999653	878.941200782	-202.019020424	;
	22	46	0.000425686	0.004558955	0.384012537	2172	2172	2172	0	0	1	-30	30	-500.451167898	83.7612572834	501.558576512	-110.350197962	;
	23	24	5.52e-05	0.000503	0.0147	2712	2712	2712	0	0	1	-30	30	1000.13463316	-97.9979114681	-999.577799294	101.600615805	;
	23	32	2.02e-05	4.64e-05	1.00675716	1906	1906	1906	0	0	1	-30	30	319.867950477	-77.91205658	-319.847149744	-22.807691191	;
	23	33	0.000169968	0.000195677	0.238673524	708	708	708	0	0	1	-30	30	209.15120929	-29.0110435935	-209.076435145	5.21445663153	;
	24	26	0.000118	0.000136	0.664	1416	1416	1416	0	0	1	-30	30	-375.706096774	15.258183564	375.875287742	-81.5456224028	;
	25	26	0.00041452	0.003775492	0.012253963	904	904	904	0	0	1	-30	30	-60.0972446129	-17.9827076056	60.1134696248	16.9042186559	;
	25	34	0.000619848	0.00564564	0.018323828	904	904	904	0	0	1	-30	30	-58.9585425763	-16.4862650617	58.9815964139	14.8619273696	;
	26	32	0.000607908	0.005536893	0.01797087	904	904	904	0	0	1	-30	30	-77.1125138039	14.5938172805	77.1500606183	-16.0511515151	;
	26	34	4.5e-05	0.000103577	2.245327702	1906	1906	1906	0	0	1	-30	30	-961.565596425	-25.0235682679	961.984431416	-198.985678964	;
	27	34	9.33e-05	0.000999417	0.336734	4344	4344	4344	0	0	1	-30	30	-27.2739074937	-3.02556161614	27.274778384	-30.7199191519	;
	28	38	0.001685665	0.015353221	0.049831335	904	904	904	0	0	1	-30	30	421.305540776	-25.3697498778	-418.306972568	47.7014263315	;
	28	41	0.002015591	0.018358223	0.059584548	904	904	904	0	0	1	-30	30	60.2232468181	32.4948744775	-60.1248517391	-37.516125686	;
	28	50	9.99e-05	0.00321	1.63	7290	7290	7290	0	0	1	-30	30	528.764131375	-145.958657416	-528.480892136	-8.33892853396	;
	28	80	0.000122152	0.003924627	7.991861101	14580	14580	14580	0	0	1	-30	30	-7427.02147006	553.698976366	7495.46002726	833.514395986	;
	29	30	8.04e-06	9.26e-06	0.04515506	1416	1416	1416	0	0	1	-30	30	602.140965972	41.3742021614	-602.111702895	-45.8620844875	;
	29	36	3.7e-05	8.52e-05	1.846241882	1906	1906	1906	0	0	1	-30	30	-616.978068975	36.258168458	617.124837088	-220.824594257	;
	30	31	0.00033011	0.003006676	0.009758648	904	904	904	0	0	1	-30	30	130.104711391	16.4919687216	-130.0479545	-16.9512389743	;
	31	33	0.000235829	0.000271499	0.331156608	708	708	708	0	0	1	-30	30	-193.433581781	-12.3902277099	193.521912014	-20.6195952014	;
	31	36	0.00107165	0.0097607	0.031679912	904	904	904	0	0	1	-30	30	-46.5799350384	-7.66468407319	46.6035963785	4.71051409943	;
	32	33	6.05e-05	6.97e-05	0.1912274	1062	1062	1062	0	0	1	-30	30	424.539202617	9.58506525321	-424.430033253	-28.5933174614	;
	32	37	0.000239942	0.002569698	0.216452349	2172	2172	2172	0	0	1	-30	30	-171.690973658	-26.2640612988	171.762213407	5.34544787799	;
	32	44	0.000338016	0.003620039	0.304925228	2172	2172	2172	0	0	1	-30	30	-523.493932371	51.3354365568	524.434432969	-71.7677918876	;
	34	37	6.47e-05	0.000692975	0.058371101	2172	2172	2172	0	0	1	-30	30	-1104.03183739	90.5607020421	1104.82428504	-87.9242461031	;
	35	37	0.000950447	0.008656772	0.028096937	904	904	904	0	0	1	-30	30	-21.9950861672	-24.9451770805	22.0049722351	22.224835926	;
	35	40	0.001104834	0.01006295	0.032660912	904	904	904	0	0	1	-30	30	-288.726797806	-17.4998495979	289.652461158	22.6543147305	;
	36	38	0.000952048	0.00867136	0.028144286	904	904	904	0	0	1	-30	30	-244.4839143	50.1435493197	245.077307768	-47.5525262452	;
	36	43	0.001604892	0.014617531	0.047443535	904	904	904	0	0	1	-30	30	45.3537464942	24.5358911993	-45.3091839172	-28.8601534436	;
	36	44	0.000327256	0.003504805	0.295218756	2172	2172	2172	0	0	1	-30	30	-436.471958813	53.5394742026	437.109640485	-76.2553372453	;
	36	46	0.000315296	0.00337672	0.284429868	2172	2172	2172	0	0	1	-30	30	-686.918778112	97.9535736119	688.443721034	-110.073206616	;
	37	40	0.000119	0.00127	0.429	4344	4344	4344	0	0	1	-30	30	-2146.39685632	-24.4265629809	2151.86556462	39.6557629233	;
	38	42	0.001675214	0.015258027	0.049522368	904	904	904	0	0	1	-30	30	-163.532386685	-1.67430867336	163.981373548	0.807732953274	;
	38	45	0.001624604	0.014797065	0.048026242	904	904	904	0	0	1	-30	30	-65.4375672989	0.429175003265	65.5074156413	-4.58849552569	;
	38	46	0.001525585	0.013895192	0.045099066	904	904	904	0	0	1	-30	30	-13.5417767552	-4.78680992247	13.5446788536	0.310613872364	;
	38	84	0.000977268	0.010466224	0.881597169	2172	2172	2172	0	0	1	-30	30	-806.570671499	173.564987927	813.405730862	-187.359951566	;
	39	44	0.000549539	0.00500526	0.064981493	1808	1808	1808	0	0	1	-30	30	-662.459041714	-66.2459044263	664.929069311	82.2932498291	;
	40	44	0.000186834	0.002000932	0.16854368	2172	2172	2172	0	0	1	-30	30	632.415543622	148.650092816	-631.628792583	-157.149169005	;
	40	47	0.000177428	0.001900194	0.160058219	2172	2172	2172	0	0	1	-30	30	593.632879154	379.771357706	-592.748189151	-386.303970736	;
	41	42	0.001299581	0.011836722	0.038417974	904	904	904	0	0	1	-30	30	239.458640266	-101.060274946	-238.572783966	105.307760802	;
	41	52	0.003101751	0.028251087	0.091693421	904	904	904	0	0	1	-30	30	13.9272450492	-6.65704003946	-13.9209959539	-2.3238436571	;
	41	77	0.002217352	0.020195883	0.065548969	904	904	904	0	0	1	-30	30	-374.703312326	127.089214108	378.244546248	-101.198499033	;
	42	46	0.00172419	0.015704108	0.050970195	904	904	904	0	0	1	-30	30	147.366208828	-1.90869125388	-146.993140336	0.202891762608	;
	42	84	0.004178797	0.038060939	0.123532864	904	904	904	0	0	1	-30	30	-156.854949461	53.0863129683	158.025632106	-54.6501041285	;
	43	44	0.000449352	0.004092749	0.013283673	904	904	904	0	0	1	-30	30	-531.849466943	-28.8557482591	533.133890144	39.2311551695	;
	44	48	0.001280818	0.011665829	0.037863315	904	904	904	0	0	1	-30	30	-202.58917954	19.4228149336	203.120706305	-18.3692278734	;
	44	57	0.000681396	0.007297531	0.614689901	2172	2172	2172	0	0	1	-30	30	-1503.45883555	146.418276763	1519.07572399	-40.8455439431	;
	45	46	0.000111099	0.001189836	0.100222927	2172	2172	2172	0	0	1	-30	30	658.656083119	-52.8165385639	-658.171182553	47.996612633	;
	45	50	0.00040114	0.004296079	0.361869864	2172	2172	2172	0	0	1	-30	30	-891.571070731	25.1831891816	894.769761209	-27.1737012043	;
	46	48	0.001260894	0.011484355	0.037274311	904	904	904	0	0	1	-30	30	-137.203823221	6.52538106702	137.442323181	-8.07993383496	;
	46	50	0.000334595	0.003583402	0.301839233	2172	2172	2172	0	0	1	-30	30	-1286.84512889	62.8213411778	1292.4120873	-33.4314320914	;
	47	49	0.001906713	0.017366547	0.056365905	904	904	904	0	0	1	-30	30	-229.477875831	15.2225300505	230.496533337	-11.5462708581	;
	47	60	0.000752607	0.008060181	0.67892992	2172	2172	2172	0	0	1	-30	30	-1775.62840662	111.296138513	1799.71356998	78.4885950493	;
	48	49	0.001480551	0.013485018	0.043767781	904	904	904	0	0	1	-30	30	-131.577780509	31.484847192	131.850693311	-33.3685087469	;
	48	51	0.001270961	0.011576049	0.037571917	904	904	904	0	0	1	-30	30	-187.47998631	23.0685874209	187.934290897	-22.6896914561	;
	49	51	0.000899122	0.008189302	0.0598043	1356	1356	1356	0	0	1	-30	30	-47.8562961636	-23.9918353956	47.8809599221	18.2477254518	;
	49	53	0.002230934	0.020319589	0.065950477	904	904	904	0	0	1	-30	30	-685.23806522	31.832476018	695.78433586	57.5372838829	;
	50	51	0.000183433	0.001964511	0.165475847	2172	2172	2172	0	0	1	-30	30	436.335258475	52.7232287506	-435.980655525	-65.5090199587	;
	50	54	0.000298513	0.003196975	0.269289514	2172	2172	2172	0	0	1	-30	30	-421.051991945	62.2363636604	421.596094202	-83.4205594935	;
	50	62	4.12e-05	0.001322961	2.693994224	14580	14580	14580	0	0	1	-30	30	-2551.19846283	-142.825210553	2553.86900345	-42.3972425373	;
	51	55	0.001436718	0.01308578	0.042471992	904	904	904	0	0	1	-30	30	-532.616125047	39.7876215509	536.716192284	-6.71156380578	;
	51	57	0.00189377	0.017248658	0.055983277	904	904	904	0	0	1	-30	30	-373.37391174	31.0860852975	376.035173143	-12.4652310787	;
	52	54	0.001933006	0.017606027	0.057143176	904	904	904	0	0	1	-30	30	-66.9491434414	-40.8073168491	67.0653290492	36.1860205145	;
	52	56	0.001462649	0.013321963	0.04323856	904	904	904	0	0	1	-30	30	-13.86304185	-20.8539808783	13.871094038	16.6530310109	;
	52	84	0.001585688	0.014442614	0.046875812	904	904	904	0	0	1	-30	30	-244.792469008	64.1449800903	245.827355324	-59.3167399053	;
	53	55	0.000288514	0.003089893	1.041078801	4344	4344	4344	0	0	1	-30	30	2161.01574089	179.206668015	-2147.80755564	-144.015793979	;
	53	58	0.000270064	0.002892303	0.243626177	2172	2172	2172	0	0	1	-30	30	-1326.8061046	40.3044206651	1331.42050073	-16.0940930046	;
	53	63	2.79e-05	0.000896312	1.825192122	14580	14580	14580	0	0	1	-30	30	1689.66786548	227.295877763	-1688.86804307	-389.359477952	;
	54	55	0.002132132	0.019419691	0.063029714	904	904	904	0	0	1	-30	30	-246.623472442	10.5935917979	247.921751851	-5.10786336031	;
	54	61	0.001817125	0.016550571	0.053717525	904	904	904	0	0	1	-30	30	-64.5807762557	-0.45715316504	64.6565027531	-4.2401854378	;
	54	62	0.000345552	0.003700749	0.311723639	2172	2172	2172	0	0	1	-30	30	-542.400345492	-34.876420537	543.416214391	14.4347117321	;
	55	57	0.000154208	0.001651521	0.139111914	2172	2172	2172	0	0	1	-30	30	319.537068561	42.6535594863	-319.377326574	-54.9678906392	;
	55	64	0.003142511	0.028622331	0.092898352	904	904	904	0	0	1	-30	30	-11.421659432	7.67733323154	11.4304809847	-16.9455288334	;
	56	61	0.001408725	0.01283082	0.041644479	904	904	904	0	0	1	-30	30	-160.455558861	-31.3114755279	160.833611749	30.600888655	;
	57	60	0.001430752	0.01303144	0.042295623	904	904	904	0	0	1	-30	30	-272.452570975	-2.66403529159	273.507359736	7.99299367896	;
	57	97	0.000552148	0.005913329	0.498094995	2172	2172	2172	0	0	1	-30	30	-1480.79656553	33.125692387	1492.83955593	45.2707454524	;
	58	59	6.17e-05	0.00066	0.501	6516	6516	6516	0	0	1	-30	30	-5525.64662847	-208.385919293	5543.82433564	350.589456764	;
	58	63	0.00017	0.00182	0.613	4344	4344	4344	0	0	1	-30	30	2950.66718497	100.124068208	-2936.37260447	-10.3177420221	;
	60	63	0.000254942	0.002730347	0.229984176	2172	2172	2172	0	0	1	-30	30	-764.900832979	-103.899764018	766.390141952	96.3734395653	;
	60	100	0.000568608	0.006089613	0.512943851	2172	2172	2172	0	0	1	-30	30	-1472.76477942	0.973902441049	1484.9068406	76.393896622	;
	61	62	0.000190755	0.001737417	0.022556263	1808	1808	1808	0	0	1	-30	30	-538.708641031	-50.4237914275	539.264795768	53.2209594813	;
	62	63	6.31e-05	0.00202596	4.125535352	14580	14580	14580	0	0	1	-30	30	-3924.18420467	-372.12781308	3933.84502264	262.94059052	;
	62	64	0.00024797	0.002655684	0.223695124	2172	2172	2172	0	0	1	-30	30	-1178.2509653	200.987935349	1181.77849035	-185.698613167	;
	63	97	0.001705746	0.015536123	0.050424972	904	904	904	0	0	1	-30	30	-203.289381928	27.5268342583	203.99188355	-26.2957251062	;
	64	96	0.001229987	0.011202852	0.036360649	904	904	904	0	0	1	-30	30	-293.330931358	10.138995161	294.387680279	-4.17176446084	;
	64	98	0.00145865	0.013285543	0.043120356	904	904	904	0	0	1	-30	30	-42.9058771628	17.7379255529	42.9384040062	-21.7586726507	;
	64	99	0.00122871	0.011191219	0.036322892	904	904	904	0	0	1	-30	30	126.856345238	60.9702965488	-126.610941599	-62.3481410728	;
	64	102	0.00020466	0.002191839	0.73849704	4344	4344	4344	0	0	1	-30	30	-1451.59822421	67.0200082238	1455.91923976	-94.9145137591	;
	65	68	0.001222283	0.011132689	0.036132921	904	904	904	0	0	1	-30	30	-456.439412729	-43.7786869607	459.031130707	63.7622398579	;
	65	69	0.003164497	0.028822584	0.093548306	904	904	904	0	0	1	-30	30	402.591085497	32.6543636072	-397.370336017	5.78235712347	;
	66	67	0.001903714	0.01733923	0.056277244	904	904	904	0	0	1	-30	30	-563.41779966	110.734640579	569.982999329	-56.3074818324	;
	66	70	0.001986687	0.018094956	0.058730073	904	904	904	0	0	1	-30	30	87.6563881465	1.99914000821	-87.4965306081	-6.15368788829	;
	67	69	0.001285688	0.011710181	0.038007266	904	904	904	0	0	1	-30	30	-591.539555605	53.7614160366	596.314988331	-13.8924510737	;
	68	69	0.00309092	0.02815243	0.091373212	904	904	904	0	0	1	-30	30	596.022503864	80.8018044479	-584.971573114	10.8428998044	;
	68	71	0.000542799	0.0058132	0.489660838	2172	2172	2172	0	0	1	-30	30	-1094.65416881	-148.583865815	1101.15040299	167.760655345	;
	69	72	0.003845431	0.035024597	0.113677932	904	904	904	0	0	1	-30	30	344.198723011	-6.91562547156	-339.441875811	39.4113037403	;
	70	72	0.001924592	0.017529395	0.056894456	904	904	904	0	0	1	-30	30	-360.101498606	64.0447030372	362.81073047	-44.7751151003	;
	71	73	0.000429713	0.004602092	0.387646086	2172	2172	2172	0	0	1	-30	30	136.738479215	-24.0516532442	-136.66148799	-15.593268643	;
	71	78	0.005029715	0.045811184	0.148687523	904	904	904	0	0	1	-30	30	491.42486781	73.9203036219	-479.472929715	19.9593998431	;
	72	74	0.001850173	0.016851572	0.054694473	904	904	904	0	0	1	-30	30	-114.205604673	-3.71986356179	114.460272316	0.842509719519	;
	73	75	0.000154736	0.001657168	0.139587554	2172	2172	2172	0	0	1	-30	30	-1655.44398498	-205.991725706	1659.56595105	235.482484206	;
	73	76	0.003400257	0.030969904	0.100517777	904	904	904	0	0	1	-30	30	373.84609454	40.0510154649	-369.225497814	-8.25354178341	;
	73	79	0.005323371	0.048485836	0.157368535	904	904	904	0	0	1	-30	30	358.934854537	35.7681405894	-352.264313508	8.96677078083	;
	73	80	0.003287737	0.029945065	0.097191498	904	904	904	0	0	1	-30	30	444.064612329	-3.23464312658	-437.852085882	49.7401387829	;
	73	81	0.001180594	0.012643784	1.065018618	2172	2172	2172	0	0	1	-30	30	1767.07533814	211.34191213	-1730.94438042	67.6531838822	;
	74	77	0.001050785	0.009570661	0.03106311	904	904	904	0	0	1	-30	30	195.114541639	-38.534990382	-194.679491391	39.5329443479	;
	74	78	0.003080612	0.028058549	0.091068507	904	904	904	0	0	1	-30	30	-389.47457233	29.3034082446	394.416329476	6.94933644622	;
	75	82	0.000690812	0.007398375	0.623184303	2172	2172	2172	0	0	1	-30	30	1061.95494341	-126.627896457	-1054.5202366	140.280765701	;
	76	79	0.00216439	0.019713499	0.063983315	904	904	904	0	0	1	-30	30	291.976710412	0.503249587008	-290.137326967	9.86504655551	;
	77	81	0.002745828	0.0250093	0.081171682	904	904	904	0	0	1	-30	30	-503.182014046	29.7038597334	510.48626176	28.9513283598	;
	78	81	0.002422622	0.022065501	0.071617111	904	904	904	0	0	1	-30	30	13.6948447522	-34.6443066372	-13.6659139762	27.9097924801	;
	79	80	0.003522928	0.032087205	0.104144155	904	904	904	0	0	1	-30	30	-133.648872204	-46.3506768568	134.343067138	42.1394362624	;
	79	81	0.001905365	0.017354266	0.056326045	904	904	904	0	0	1	-30	30	282.700390487	-1.35419581175	-281.166143072	9.76254930183	;
	79	83	0.001772751	0.016146406	0.052405742	904	904	904	0	0	1	-30	30	359.52213844	14.7723869817	-357.208129316	1.14146653	;
	80	82	3.61e-05	0.00115912	2.360357594	14580	14580	14580	0	0	1	-30	30	-7186.91341676	-929.135537989	7205.23738995	1270.64534659	;
	81	84	0.00122041	0.011115623	0.144310127	1808	1808	1808	0	0	1	-30	30	1570.19402514	-2.80703689413	-1539.60647088	267.262933301	;
	81	86	0.000662535	0.007095536	0.59767536	2172	2172	2172	0	0	1	-30	30	-259.128952678	-151.892489274	259.682252924	98.388952891	;
	82	85	0.004627741	0.042149964	0.136804449	904	904	904	0	0	1	-30	30	350.500842354	45.6831846215	-345.02111907	-9.90902713161	;
	82	86	0.000927929	0.009937818	0.837088105	2172	2172	2172	0	0	1	-30	30	1601.76332738	213.157576363	-1578.74820791	-53.1498273064	;
	82	94	0.005001876	0.045557628	0.147864567	904	904	904	0	0	1	-30	30	374.273112141	48.0604288423	-367.523046327	-1.82722507192	;
	83	89	0.003668123	0.033409661	0.108436396	904	904	904	0	0	1	-30	30	123.687478123	-24.4935804414	-123.099641294	19.2165049078	;
	85	86	0.000987046	0.00899012	0.029178874	904	904	904	0	0	1	-30	30	125.08467723	-12.0846167462	-124.929963672	10.5607746318	;
	86	87	0.000301405	0.003227955	0.271898989	2172	2172	2172	0	0	1	-30	30	563.433327585	-31.0091648074	-562.480315727	13.9173060381	;
	86	89	0.003643968	0.033189659	0.107722346	904	904	904	0	0	1	-30	30	210.064454791	11.7504517057	-208.453732764	-7.78820225478	;
	86	90	0.002477336	0.022563841	0.073234554	904	904	904	0	0	1	-30	30	114.806109069	-7.43497228675	-114.480849112	3.04984326485	;
	86	92	0.000752885	0.008063158	0.67918067	2172	2172	2172	0	0	1	-30	30	340.315005213	-50.643915742	-339.445316337	-8.23907628644	;
	87	90	0.002118269	0.019293421	0.062619884	904	904	904	0	0	1	-30	30	40.1696889782	-3.83553171235	-40.1356010663	-2.13056500683	;
	87	95	0.000515412	0.005519901	0.464955523	2172	2172	2172	0	0	1	-30	30	511.230759889	-15.0089728863	-509.887390301	-17.114507496	;
	88	92	0.001978682	0.018022046	0.058493431	904	904	904	0	0	1	-30	30	28.698536732	-6.12471384024	-28.6820916225	0.406228201991	;
	88	94	0.002833759	0.025810183	0.083771075	904	904	904	0	0	1	-30	30	-42.5530536548	4.73926216627	42.6064600965	-12.6481702257	;
	89	93	0.001483845	0.013515018	0.043865152	904	904	904	0	0	1	-30	30	256.818419129	-18.9018120105	-255.818769173	23.6980298755	;
	90	92	0.002453205	0.022344057	0.072521209	904	904	904	0	0	1	-30	30	6.43611349665	-7.9432718368	-6.43464373083	0.686773439927	;
	91	147	0.00275034	0.025050396	0.081305066	904	904	904	0	0	1	-30	30	-50.1032828162	-5.01032828372	50.172720583	-2.45832533476	;
	92	95	0.000460572	0.004932573	0.415483409	2172	2172	2172	0	0	1	-30	30	385.308001571	3.91642084208	-384.623631443	-38.1537895151	;
	93	102	0.004195747	0.038215319	0.124033929	904	904	904	0	0	1	-30	30	84.336787404	-45.3270717112	-83.9668430421	36.3744813332	;
	93	149	0.002966654	0.027020609	0.087699707	904	904	904	0	0	1	-30	30	72.3402282559	11.7148687181	-72.1742707662	-18.7546264921	;
	94	150	0.00258422	0.023537359	0.076394262	904	904	904	0	0	1	-30	30	293.21966222	10.8107050831	-290.9948047	1.87118477027	;
...